#P rhf nosymm output=matrix int=noraf scf=conven

Hydrogen_Molecule

0 1
H              
H 1 1.0
H 2 1.0 1 180.
H 3 1.0 2 180. 1 0.0
H 4 1.0 3 180. 1 0.0
H 5 1.0 4 180. 1 0.0
H 6 1.0 5 180. 1 0.0
H 7 1.0 6 180. 1 0.0
H 8 1.0 7 180. 1 0.0
H 9 1.0 8 180. 1 0.0
H 10 1.0 9 180. 1 0.0
H 11 1.0 10 180. 1 0.0
 
h12_1_Ang.mat

