#P rhf nosymm output=matrix int=noraf scf=conven

Hydrogen_Molecule

0 1
H              
H 1 1.0
H 2 1.0 1 180.
H 3 1.0 2 180. 1 0.0
H 4 1.0 3 180. 1 0.0
H 5 1.0 4 180. 1 0.0
H 6 1.0 5 180. 1 0.0
H 7 1.0 6 180. 1 0.0
H 8 1.0 7 180. 1 0.0
H 9 1.0 8 180. 1 0.0
H 10 1.0 9 180. 1 0.0
H 11 1.0 10 180. 1 0.0
H 12 1.0 11 180. 1 0.0
H 13 1.0 12 180. 1 0.0
H 14 1.0 13 180. 1 0.0
H 15 1.0 14 180. 1 0.0
H 16 1.0 15 180. 1 0.0
H 17 1.0 16 180. 1 0.0
H 18 1.0 17 180. 1 0.0
H 19 1.0 18 180. 1 0.0
 
h20_1_Ang.mat

