#P rhf nosymm output=matrix int=noraf scf=conven

Hydrogen_Molecule

0 1
H              
H 1 1.0
H 2 1.0 1 180.
H 3 1.0 2 180. 1 0.0
H 4 1.0 3 180. 1 0.0
H 5 1.0 4 180. 1 0.0
H 6 1.0 5 180. 1 0.0
H 7 1.0 6 180. 1 0.0
H 8 1.0 7 180. 1 0.0
H 9 1.0 8 180. 1 0.0
H 10 1.0 9 180. 1 0.0
H 11 1.0 10 180. 1 0.0
H 12 1.0 11 180. 1 0.0
H 13 1.0 12 180. 1 0.0
H 14 1.0 13 180. 1 0.0
H 15 1.0 14 180. 1 0.0
H 16 1.0 15 180. 1 0.0
H 17 1.0 16 180. 1 0.0
H 18 1.0 17 180. 1 0.0
H 19 1.0 18 180. 1 0.0
H 20 1.0 19 180. 1 0.0
H 21 1.0 20 180. 1 0.0
H 22 1.0 21 180. 1 0.0
H 23 1.0 22 180. 1 0.0
H 24 1.0 23 180. 1 0.0
H 25 1.0 24 180. 1 0.0
H 26 1.0 25 180. 1 0.0
H 27 1.0 26 180. 1 0.0
H 28 1.0 27 180. 1 0.0
H 29 1.0 28 180. 1 0.0
H 30 1.0 29 180. 1 0.0
H 31 1.0 30 180. 1 0.0
H 32 1.0 31 180. 1 0.0
H 33 1.0 32 180. 1 0.0
H 34 1.0 33 180. 1 0.0
H 35 1.0 34 180. 1 0.0
H 36 1.0 35 180. 1 0.0
H 37 1.0 36 180. 1 0.0
H 38 1.0 37 180. 1 0.0
H 39 1.0 38 180. 1 0.0
H 40 1.0 39 180. 1 0.0
H 41 1.0 40 180. 1 0.0
H 42 1.0 41 180. 1 0.0
H 43 1.0 42 180. 1 0.0
H 44 1.0 43 180. 1 0.0
H 45 1.0 44 180. 1 0.0
H 46 1.0 45 180. 1 0.0
H 47 1.0 46 180. 1 0.0

h48_1_Ang.mat

