%chk=transition_state.chk
#P UHF/6-31G(d) Opt=QST2 Test

HH3CO structure

0 2
 C                 -0.95652177    0.33913043    0.00000000
 H                 -0.59986735   -0.66967957    0.00000000
 H                 -0.59984893    0.84352862   -0.87365150
 H                 -2.02652177    0.33914361    0.00000000
 O                 -0.47984685    1.01323268    1.16759033

Product Structure 

0 2
 O                 -0.08723313   -0.05837455    0.69666073
 C                 -0.03333468   -0.12339484   -0.73084314
 H                  0.59329566    0.53885800    1.01571221
 H                  0.97280347    0.03753400   -1.05747427
 H                 -0.66822595    0.63097348   -1.14646496

