%chk=propene_180.chk
# opt hf/6-31g(d) geom=connectivity

Title Card Required

0 1
 C              
 H                  1            B1
 C                  1            B2    2            A1
 H                  3            B3    1            A2    2            D1    0
 H                  3            B4    1            A3    2            D2    0
 C                  1            B5    3            A4    5            D3    0
 H                  6            B6    1            A5    3            D4    0
 H                  6            B7    1            A6    3            D5    0
 H                  6            B8    3            A7    1            D6    0

   B1             1.07000000
   B2             1.35520000
   B3             1.07000000
   B4             1.07000000
   B5             1.54000000
   B6             1.07000000
   B7             1.07000000
   B8             1.07000000
   A1           119.88652694
   A2           120.22694612
   A3           119.88652694
   A4           120.22694612
   A5            89.99999091
   A6            89.99999091
   A7           0.0
   D1            -0.00000000
   D2           180.00000000
   D3            -0.00000000
   D4          -174.74672540
   D5           -65.27547460
   D6          -180.00000000

 1 2 1.0 3 2.0 6 1.0
 2
 3 4 1.0 5 1.0
 4
 5
 6 7 1.0 8 1.0 9 1.0
 7
 8
 9

