%chk=formaldehyde.chk
# Rhf/6-31g(d) geom=connectivity pop=full test

Single Point Energy Calculation for Formaldehyde using RHF

0 1
 C              
 H                  1            B1
 H                  1            B2    2            A1
 O                  1            B3    3            A2    2            D1    0

   B1             1.07000000
   B2             1.07000000
   B3             1.25840000
   A1           119.88652694
   A2           119.88652694
   D1           180.00000000

 1 2 1.0 3 1.0 4 2.0
 2
 3
 4

