%chk=methane_NMR.chk
#P rhf/6-31g(d) geom=connectivity pop=full nmr test

Methane NMR 

0 1
 C                 -0.85855518   -0.17569890   -0.07838426
 H                 -0.50190075   -1.18450890   -0.07838426
 H                 -0.50188234    0.32869929    0.79526725
 H                 -0.50188234    0.32869929   -0.95203576
 H                 -1.92855518   -0.17568572   -0.07838426

 1 2 1.0 3 1.0 4 1.0 5 1.0
 2
 3
 4
 5

