%chk=products.chk
#T UHF/STO-3G nosymm opt

H3CO --> H2COH Products 

0 2
 O                 -0.08723313   -0.05837455    0.69666073
 C                 -0.03333468   -0.12339484   -0.73084314
 H                  0.59329566    0.53885800    1.01571221
 H                  0.97280347    0.03753400   -1.05747427
 H                 -0.66822595    0.63097348   -1.14646496

