%chk=reactant.chk
#T UHF/STO-3G opt  nosymm

H3CO --> H2COH Reactants 

0 2
 C                 -0.95652177    0.33913043    0.00000000
 H                 -0.59986735   -0.66967957    0.00000000
 H                 -0.59984893    0.84352862   -0.87365150
 H                 -2.02652177    0.33914361    0.00000000
 O                 -0.47984685    1.01323268    1.16759033

