%chk=unstable_resonance_structure_coord.chk
# opt uhf/sto-3g nosymm

Unstable Resonance Structure H3C-N=N

0 2
 N                 -0.04413400    0.12204500    0.01517300
 N                  1.18786400    0.12204600    0.01724200
 C                 -0.77913400   -1.15101200    0.01517300
 H                 -1.83111900   -0.95549100    0.01517300
 H                 -0.52064200   -1.71209600   -0.85847800
 H                 -0.52064200   -1.71209600    0.88882400

